examples/Custom_controls_example/DSSfiles/Green_dss/Transformers.dss
New Transformer.1123341E phases=3 wdg=1 bus=1123341E_T_07570.1.2.3 conn=wye kv=12.00 kVA=75 wdg=2 bus=X_1123341E_T_07570.1.2.3 kv=0.48 kVA=75 %loadloss=0.749 %noloadloss=.171 XHL=1.773 emerghkva=105
New Transformer.1123342E phases=3 wdg=1 bus=1123342E_T_07570.1.2.3 conn=wye kv=12.00 kVA=10 wdg=2 bus=X_1123342E_T_07570.1.2.3 kv=0.48 kVA=10 %loadloss=1.153 %noloadloss=.318 XHL=1.888 emerghkva=14
New Transformer.1223308E phases=3 wdg=1 bus=1223308E_T_07570.1.2.3 conn=wye kv=12.00 kVA=30 wdg=2 bus=X_1223308E_T_07570.1.2.3 kv=0.48 kVA=30 %loadloss=0.7221 %noloadloss=.2423 XHL=1.5158 emerghkva=42
New Transformer.1254458E phases=3 wdg=1 bus=1254458E_T_07570.1.2.3 conn=wye kv=12.00 kVA=30 wdg=2 bus=X_1254458E_T_07570.1.2.3 kv=0.48 kVA=30 %loadloss=0.831 %noloadloss=.219 XHL=1.686 emerghkva=42
New Transformer.1254567E phases=3 wdg=1 bus=1254567E_T_07570.1.2.3 conn=wye kv=12.00 kVA=10 wdg=2 bus=X_1254567E_T_07570.1.2.3 kv=0.48 kVA=10 %loadloss=1.153 %noloadloss=.318 XHL=1.888 emerghkva=14
New Transformer.12546T phases=3 wdg=1 bus=12546T_T_07570.1.2.3 conn=wye kv=12.00 kVA=45 wdg=2 bus=X_12546T_T_07570.1.2.3 kv=0.48 kVA=45 %loadloss=0.7380 %noloadloss=.1987 XHL=1.7532 emerghkva=63
New Transformer.1299702E phases=3 wdg=1 bus=1299702E_T_07570.1.2.3 conn=wye kv=12.00 kVA=25 wdg=2 bus=X_1299702E_T_07570.1.2.3 kv=0.48 kVA=25 %loadloss=1.008 %noloadloss=.230 XHL=1.803 emerghkva=35
New Transformer.1340496E_07570$1340496E_T_0757-1 phases=3 wdg=1 bus=1340496E_T_07570.1.2.3 conn=wye kv=12.00 kVA=50 wdg=2 bus=X_1340496E_T_07570.1.2.3 kv=0.416 kVA=50 %loadloss=0.811 %noloadloss=.184 XHL=1.765 emerghkva=70
New Transformer.1406528E_07570$1406528E_T_0757-1 phases=3 wdg=1 bus=1406528E_T_07570.1.2.3 conn=wye kv=12.00 kVA=30 wdg=2 bus=X_1406528E_T_07570.1.2.3 kv=0.416 kVA=30 %loadloss=0.831 %noloadloss=.219 XHL=1.686 emerghkva=42
New Transformer.1406609E phases=3 wdg=1 bus=1406609E_T_07570.1.2.3 conn=wye kv=12.00 kVA=10 wdg=2 bus=X_1406609E_T_07570.1.2.3 kv=0.48 kVA=10 %loadloss=1.153 %noloadloss=.318 XHL=1.888 emerghkva=14
New Transformer.1406796E phases=3 wdg=1 bus=1406796E_T_07570.1.2.3 conn=wye kv=12.00 kVA=150 wdg=2 bus=X_1406796E_T_07570.1.2.3 kv=0.48 kVA=150 %loadloss=0.6991 %noloadloss=.2298 XHL=3 emerghkva=210
!New Transformer.1434526E phases=3 wdg=1 bus=1434526E_T_07570.1.2.3 conn=wye kv=12.00 kVA=0 wdg=2 bus=X_1434526E_T_07570.1.2.3 kv=0.48 kVA=0 %loadloss=1.022 %noloadloss=.3221 XHL=1.707 emerghkva=0
New Transformer.1434873E phases=3 wdg=1 bus=1434873E_T_07570.1.2.3 conn=wye kv=12.00 kVA=5 wdg=2 bus=X_1434873E_T_07570.1.2.3 kv=0.48 kVA=5 %loadloss=1.153 %noloadloss=.318 XHL=1.888 emerghkva=7
New Transformer.1475348E phases=3 wdg=1 bus=1475348E_T_07570.1.2.3 conn=wye kv=12.00 kVA=45 wdg=2 bus=X_1475348E_T_07570.1.2.3 kv=0.48 kVA=45 %loadloss=0.811 %noloadloss=.184 XHL=1.765 emerghkva=63
New Transformer.1475350E phases=3 wdg=1 bus=1475350E_T_07570.1.2.3 conn=wye kv=12.00 kVA=25 wdg=2 bus=X_1475350E_T_07570.1.2.3 kv=0.48 kVA=25 %loadloss=0.7639 %noloadloss=.0851 XHL=2.1 emerghkva=35
New Transformer.1507174E phases=3 wdg=1 bus=1507174E_T_07570.1.2.3 conn=wye kv=12.00 kVA=75 wdg=2 bus=X_1507174E_T_07570.1.2.3 kv=0.48 kVA=75 %loadloss=0.749 %noloadloss=.171 XHL=1.773 emerghkva=105
New Transformer.1636824E phases=3 wdg=1 bus=1636824E_T_07570.1.2.3 conn=wye kv=12.00 kVA=15 wdg=2 bus=X_1636824E_T_07570.1.2.3 kv=0.48 kVA=15 %loadloss=0.7639 %noloadloss=.0851 XHL=2.1 emerghkva=21
New Transformer.1636825E phases=3 wdg=1 bus=1636825E_T_07570.1.2.3 conn=wye kv=12.00 kVA=30 wdg=2 bus=X_1636825E_T_07570.1.2.3 kv=0.48 kVA=30 %loadloss=0.831 %noloadloss=.219 XHL=1.686 emerghkva=42
New Transformer.1636876E phases=3 wdg=1 bus=1636876E_T_07570.1.2.3 conn=wye kv=12.00 kVA=10 wdg=2 bus=X_1636876E_T_07570.1.2.3 kv=0.48 kVA=10 %loadloss=1.022 %noloadloss=.3221 XHL=1.707 emerghkva=14
New Transformer.1763646E phases=3 wdg=1 bus=1763646E_T_07570.1.2.3 conn=wye kv=12.00 kVA=5 wdg=2 bus=X_1763646E_T_07570.1.2.3 kv=0.48 kVA=5 %loadloss=1.022 %noloadloss=.3221 XHL=1.707 emerghkva=7
New Transformer.1763673E_07570$1763673E_T_0757-1 phases=3 wdg=1 bus=1763673E_T_07570.1.2.3 conn=wye kv=12.00 kVA=30 wdg=2 bus=X_1763673E_T_07570.1.2.3 kv=0.416 kVA=30 %loadloss=0.831 %noloadloss=.219 XHL=1.686 emerghkva=42
New Transformer.1763996E phases=3 wdg=1 bus=1763996E_T_07570.1.2.3 conn=wye kv=12.00 kVA=20 wdg=2 bus=X_1763996E_T_07570.1.2.3 kv=0.48 kVA=20 %loadloss=1.008 %noloadloss=.230 XHL=1.803 emerghkva=28
New Transformer.1807630E phases=3 wdg=1 bus=1807630E_T_07570.1.2.3 conn=wye kv=12.00 kVA=15 wdg=2 bus=X_1807630E_T_07570.1.2.3 kv=0.48 kVA=15 %loadloss=1.008 %noloadloss=.230 XHL=1.803 emerghkva=21
New Transformer.1807754E phases=3 wdg=1 bus=1807754E_T_07570.1.2.3 conn=wye kv=12.00 kVA=112 wdg=2 bus=X_1807754E_T_07570.1.2.3 kv=0.48 kVA=112 %loadloss=0.6991 %noloadloss=.2298 XHL=3 emerghkva=156.8
New Transformer.1807861E phases=3 wdg=1 bus=1807861E_T_07570.1.2.3 conn=wye kv=12.00 kVA=25 wdg=2 bus=X_1807861E_T_07570.1.2.3 kv=0.48 kVA=25 %loadloss=1.008 %noloadloss=.230 XHL=1.803 emerghkva=35
New Transformer.1807862E phases=3 wdg=1 bus=1807862E_T_07570.1.2.3 conn=wye kv=12.00 kVA=45 wdg=2 bus=X_1807862E_T_07570.1.2.3 kv=0.48 kVA=45 %loadloss=0.811 %noloadloss=.184 XHL=1.765 emerghkva=63
New Transformer.1807900E_07570$1807900E_T_0757-1 phases=3 wdg=1 bus=1807900E_T_07570.1.2.3 conn=wye kv=12.00 kVA=50 wdg=2 bus=X_1807900E_T_07570.1.2.3 kv=0.416 kVA=50 %loadloss=0.7380 %noloadloss=.1987 XHL=1.7532 emerghkva=70
New Transformer.1813456E_07570$1813456E_T_0757-1 phases=3 wdg=1 bus=1813456E_T_07570.1.2.3 conn=wye kv=12.00 kVA=30 wdg=2 bus=X_1813456E_T_07570.1.2.3 kv=0.416 kVA=30 %loadloss=0.831 %noloadloss=.219 XHL=1.686 emerghkva=42
New Transformer.1813486E_07570$1813486E_T_0757-1 phases=3 wdg=1 bus=1813486E_T_07570.1.2.3 conn=wye kv=12.00 kVA=20 wdg=2 bus=X_1813486E_T_07570.1.2.3 kv=0.416 kVA=20 %loadloss=0.7639 %noloadloss=.0851 XHL=2.1 emerghkva=28
New Transformer.1851663E_07570$1851663E_T_0757-1 phases=3 wdg=1 bus=1851663E_T_07570.1.2.3 conn=wye kv=12.00 kVA=75 wdg=2 bus=X_1851663E_T_07570.1.2.3 kv=0.416 kVA=75 %loadloss=0.7578 %noloadloss=.1348 XHL=2.41 emerghkva=105
New Transformer.1898793E phases=1 wdg=1 bus=1898793E_T_07570.1.2 conn=delta kv=12.00 kVA=10 wdg=2 bus=X_1898793E_T_07570.1 kv=0.24 kVA=10 %loadloss=1.022 %noloadloss=.3221 XHL=1.707 emerghkva=14
New Transformer.1943316E_07570$1943316E_T_0757-1 phases=3 wdg=1 bus=1943316E_T_07570.1.2.3 conn=wye kv=12.00 kVA=50 wdg=2 bus=X_1943316E_T_07570.1.2.3 kv=0.416 kVA=50 %loadloss=0.7380 %noloadloss=.1987 XHL=1.7532 emerghkva=70
New Transformer.1982073E_07570$1982073E_T_0757-1 phases=3 wdg=1 bus=1982073E_T_07570.1.2.3 conn=wye kv=12.00 kVA=30 wdg=2 bus=X_1982073E_T_07570.1.2.3 kv=0.416 kVA=30 %loadloss=0.7221 %noloadloss=.2423 XHL=1.5158 emerghkva=42
New Transformer.1982078E_07570$1982078E_T_0757-1 phases=3 wdg=1 bus=1982078E_T_07570.1.2.3 conn=wye kv=12.00 kVA=50 wdg=2 bus=X_1982078E_T_07570.1.2.3 kv=0.416 kVA=50 %loadloss=0.811 %noloadloss=.184 XHL=1.765 emerghkva=70
New Transformer.1982110E phases=3 wdg=1 bus=1982110E_T_07570.1.2.3 conn=wye kv=12.00 kVA=15 wdg=2 bus=X_1982110E_T_07570.1.2.3 kv=0.48 kVA=15 %loadloss=0.7639 %noloadloss=.0851 XHL=2.1 emerghkva=21
New Transformer.1982177E_07570$1982177E_T_0757-1 phases=3 wdg=1 bus=1982177E_T_07570.1.2.3 conn=wye kv=12.00 kVA=50 wdg=2 bus=X_1982177E_T_07570.1.2.3 kv=0.416 kVA=50 %loadloss=0.7380 %noloadloss=.1987 XHL=1.7532 emerghkva=70
!New Transformer.1982184E phases=3 wdg=1 bus=1982184E_T_07570.1.2.3 conn=wye kv=12.00 kVA=0 wdg=2 bus=X_1982184E_T_07570.1.2.3 kv=0.48 kVA=0 %loadloss=1.022 %noloadloss=.3221 XHL=1.707 emerghkva=0
!New Transformer.1982285E phases=3 wdg=1 bus=1982285E_T_07570.1.2.3 conn=wye kv=12.00 kVA=0 wdg=2 bus=X_1982285E_T_07570.1.2.3 kv=0.48 kVA=0 %loadloss=1.022 %noloadloss=.3221 XHL=1.707 emerghkva=0
New Transformer.1982290E phases=3 wdg=1 bus=1982290E_T_07570.1.2.3 conn=wye kv=12.00 kVA=10 wdg=2 bus=X_1982290E_T_07570.1.2.3 kv=0.48 kVA=10 %loadloss=1.022 %noloadloss=.3221 XHL=1.707 emerghkva=14
New Transformer.1982338E_07570$1982338E_T_0757-1 phases=3 wdg=1 bus=1982338E_T_07570.1.2.3 conn=wye kv=12.00 kVA=20 wdg=2 bus=X_1982338E_T_07570.1.2.3 kv=0.416 kVA=20 %loadloss=1.008 %noloadloss=.230 XHL=1.803 emerghkva=28
New Transformer.2024837E_07570$2024837E_T_0757-1 phases=3 wdg=1 bus=2024837E_T_07570.1.2.3 conn=wye kv=12.00 kVA=50 wdg=2 bus=X_2024837E_T_07570.1.2.3 kv=0.416 kVA=50 %loadloss=0.7380 %noloadloss=.1987 XHL=1.7532 emerghkva=70
New Transformer.2024846E_07570$2024846E_T_0757-1 phases=3 wdg=1 bus=2024846E_T_07570.1.2.3 conn=wye kv=12.00 kVA=20 wdg=2 bus=X_2024846E_T_07570.1.2.3 kv=0.416 kVA=20 %loadloss=1.008 %noloadloss=.230 XHL=1.803 emerghkva=28
New Transformer.2093101E_07570$2093101E_T_0757-1 phases=1 wdg=1 bus=2093101E_T_07570.1.2 conn=delta kv=12.00 kVA=30 wdg=2 bus=X_2093101E_T_07570.1 kv=0.240 kVA=30 %loadloss=0.831 %noloadloss=.219 XHL=1.686 emerghkva=42
New Transformer.2093143E_07570$2093143E_T_0757-1 phases=3 wdg=1 bus=2093143E_T_07570.1.2.3 conn=wye kv=12.00 kVA=20 wdg=2 bus=X_2093143E_T_07570.1.2.3 kv=0.416 kVA=20 %loadloss=0.7639 %noloadloss=.0851 XHL=2.1 emerghkva=28
New Transformer.2111258E_07570$2111258E_T_0757-1 phases=3 wdg=1 bus=2111258E_T_07570.1.2.3 conn=wye kv=12.00 kVA=75 wdg=2 bus=X_2111258E_T_07570.1.2.3 kv=0.416 kVA=75 %loadloss=0.7578 %noloadloss=.1348 XHL=2.41 emerghkva=105
New Transformer.2125310E_07570$2125310E_T_0757-1 phases=3 wdg=1 bus=2125310E_T_07570.1.2.3 conn=wye kv=12.00 kVA=50 wdg=2 bus=X_2125310E_T_07570.1.2.3 kv=0.416 kVA=50 %loadloss=0.811 %noloadloss=.184 XHL=1.765 emerghkva=70
New Transformer.2138543E phases=3 wdg=1 bus=2138543E_T_07570.1.2.3 conn=wye kv=12.00 kVA=75 wdg=2 bus=X_2138543E_T_07570.1.2.3 kv=0.48 kVA=75 %loadloss=0.749 %noloadloss=.171 XHL=1.773 emerghkva=105
New Transformer.2163006E_07570$2163006E_T_0757-1 phases=3 wdg=1 bus=2163006E_T_07570.1.2.3 conn=wye kv=12.00 kVA=20 wdg=2 bus=X_2163006E_T_07570.1.2.3 kv=0.416 kVA=20 %loadloss=1.008 %noloadloss=.230 XHL=1.803 emerghkva=28
New Transformer.2164704E phases=3 wdg=1 bus=2164704E_T_07570.1.2.3 conn=wye kv=12.00 kVA=15 wdg=2 bus=X_2164704E_T_07570.1.2.3 kv=0.48 kVA=15 %loadloss=1.008 %noloadloss=.230 XHL=1.803 emerghkva=21
New Transformer.2197942E phases=3 wdg=1 bus=2197942E_T_07570.1.2.3 conn=wye kv=12.00 kVA=10 wdg=2 bus=X_2197942E_T_07570.1.2.3 kv=0.48 kVA=10 %loadloss=1.153 %noloadloss=.318 XHL=1.888 emerghkva=14
New Transformer.2198214E_07570$2198214E_T_0757-1 phases=3 wdg=1 bus=2198214E_T_07570.1.2.3 conn=wye kv=12.00 kVA=50 wdg=2 bus=X_2198214E_T_07570.1.2.3 kv=0.416 kVA=50 %loadloss=0.811 %noloadloss=.184 XHL=1.765 emerghkva=70
New Transformer.2212593E phases=3 wdg=1 bus=2212593E_T_07570.1.2.3 conn=wye kv=12.00 kVA=112 wdg=2 bus=X_2212593E_T_07570.1.2.3 kv=0.48 kVA=112 %loadloss=0.6991 %noloadloss=.2298 XHL=3 emerghkva=156.8
New Transformer.2212993E_07570$2212993E_T_0757-1 phases=3 wdg=1 bus=2212993E_T_07570.1.2.3 conn=wye kv=12.00 kVA=20 wdg=2 bus=X_2212993E_T_07570.1.2.3 kv=0.416 kVA=20 %loadloss=1.008 %noloadloss=.230 XHL=1.803 emerghkva=28
New Transformer.2229829E phases=3 wdg=1 bus=2229829E_T_07570.1.2.3 conn=wye kv=12.00 kVA=20 wdg=2 bus=X_2229829E_T_07570.1.2.3 kv=0.48 kVA=20 %loadloss=1.008 %noloadloss=.230 XHL=1.803 emerghkva=28
New Transformer.2253642E phases=3 wdg=1 bus=2253642E_T_07570.1.2.3 conn=wye kv=12.00 kVA=10 wdg=2 bus=X_2253642E_T_07570.1.2.3 kv=0.48 kVA=10 %loadloss=1.022 %noloadloss=.3221 XHL=1.707 emerghkva=14
New Transformer.2253647E phases=3 wdg=1 bus=2253647E_T_07570.1.2.3 conn=wye kv=12.00 kVA=30 wdg=2 bus=X_2253647E_T_07570.1.2.3 kv=0.48 kVA=30 %loadloss=0.7221 %noloadloss=.2423 XHL=1.5158 emerghkva=42
New Transformer.2272786E phases=3 wdg=1 bus=2272786E_T_07570.1.2.3 conn=wye kv=12.00 kVA=20 wdg=2 bus=X_2272786E_T_07570.1.2.3 kv=0.48 kVA=20 %loadloss=0.7639 %noloadloss=.0851 XHL=2.1 emerghkva=28
New Transformer.2281906ED phases=3 wdg=1 bus=2281906ED_T_07570.1.2.3 conn=wye kv=12.00 kVA=30 wdg=2 bus=X_2281906ED_T_07570.1.2.3 kv=0.48 kVA=30 %loadloss=0.831 %noloadloss=.219 XHL=1.686 emerghkva=42
New Transformer.2286962E phases=3 wdg=1 bus=2286962E_T_07570.1.2.3 conn=wye kv=12.00 kVA=15 wdg=2 bus=X_2286962E_T_07570.1.2.3 kv=0.48 kVA=15 %loadloss=1.008 %noloadloss=.230 XHL=1.803 emerghkva=21
New Transformer.2288841E_07570$2288841E_T_0757-1 phases=3 wdg=1 bus=2288841E_T_07570.1.2.3 conn=wye kv=12.00 kVA=20 wdg=2 bus=X_2288841E_T_07570.1.2.3 kv=0.416 kVA=20 %loadloss=1.008 %noloadloss=.230 XHL=1.803 emerghkva=28
New Transformer.2288847E_07570$2288847E_T_0757-1 phases=3 wdg=1 bus=2288847E_T_07570.1.2.3 conn=wye kv=12.00 kVA=50 wdg=2 bus=X_2288847E_T_07570.1.2.3 kv=0.416 kVA=50 %loadloss=0.811 %noloadloss=.184 XHL=1.765 emerghkva=70
!New Transformer.2295944E phases=3 wdg=1 bus=2295944E_T_07570.1.2.3 conn=wye kv=12.00 kVA=0 wdg=2 bus=X_2295944E_T_07570.1.2.3 kv=0.48 kVA=0 %loadloss=1.022 %noloadloss=.3221 XHL=1.707 emerghkva=0
New Transformer.2331043E_07570$2331043E_T_0757-1 phases=3 wdg=1 bus=2331043E_T_07570.1.2.3 conn=wye kv=12.00 kVA=20 wdg=2 bus=X_2331043E_T_07570.1.2.3 kv=0.416 kVA=20 %loadloss=1.008 %noloadloss=.230 XHL=1.803 emerghkva=28
New Transformer.2331624E phases=3 wdg=1 bus=2331624E_T_07570.1.2.3 conn=wye kv=12.00 kVA=75 wdg=2 bus=X_2331624E_T_07570.1.2.3 kv=0.48 kVA=75 %loadloss=0.7578 %noloadloss=.1348 XHL=2.41 emerghkva=105
New Transformer.392078E phases=3 wdg=1 bus=392078E_T_07570.1.2.3 conn=wye kv=12.00 kVA=5 wdg=2 bus=X_392078E_T_07570.1.2.3 kv=0.48 kVA=5 %loadloss=1.153 %noloadloss=.318 XHL=1.888 emerghkva=7
New Transformer.396528E phases=3 wdg=1 bus=396528E_T_07570.1.2.3 conn=wye kv=12.00 kVA=20 wdg=2 bus=X_396528E_T_07570.1.2.3 kv=0.48 kVA=20 %loadloss=1.008 %noloadloss=.230 XHL=1.803 emerghkva=28
New Transformer.397385E_07570$397385E_T_07570-1 phases=3 wdg=1 bus=397385E_T_07570.1.2.3 conn=wye kv=12.00 kVA=10 wdg=2 bus=X_397385E_T_07570.1.2.3 kv=0.416 kVA=10 %loadloss=1.153 %noloadloss=.318 XHL=1.888 emerghkva=14
New Transformer.4001837E phases=3 wdg=1 bus=4001837E_T_07570.1.2.3 conn=wye kv=12.00 kVA=15 wdg=2 bus=X_4001837E_T_07570.1.2.3 kv=0.48 kVA=15 %loadloss=0.7639 %noloadloss=.0851 XHL=2.1 emerghkva=21
New Transformer.4002234E phases=3 wdg=1 bus=4002234E_T_07570.1.2.3 conn=wye kv=12.00 kVA=75 wdg=2 bus=X_4002234E_T_07570.1.2.3 kv=0.48 kVA=75 %loadloss=0.749 %noloadloss=.171 XHL=1.773 emerghkva=105
New Transformer.4026131E phases=3 wdg=1 bus=4026131E_T_07570.1.2.3 conn=wye kv=12.00 kVA=10 wdg=2 bus=X_4026131E_T_07570.1.2.3 kv=0.48 kVA=10 %loadloss=1.153 %noloadloss=.318 XHL=1.888 emerghkva=14
New Transformer.4026373E phases=3 wdg=1 bus=4026373E_T_07570.1.2.3 conn=wye kv=12.00 kVA=20 wdg=2 bus=X_4026373E_T_07570.1.2.3 kv=0.48 kVA=20 %loadloss=1.008 %noloadloss=.230 XHL=1.803 emerghkva=28
New Transformer.4037849E phases=3 wdg=1 bus=4037849E_T_07570.1.2.3 conn=wye kv=12.00 kVA=25 wdg=2 bus=X_4037849E_T_07570.1.2.3 kv=0.48 kVA=25 %loadloss=0.7639 %noloadloss=.0851 XHL=2.1 emerghkva=35
New Transformer.4067277E phases=3 wdg=1 bus=4067277E_T_07570.1.2.3 conn=wye kv=12.00 kVA=75 wdg=2 bus=X_4067277E_T_07570.1.2.3 kv=0.48 kVA=75 %loadloss=0.749 %noloadloss=.171 XHL=1.773 emerghkva=105
New Transformer.4067585E phases=3 wdg=1 bus=4067585E_T_07570.1.2.3 conn=wye kv=12.00 kVA=45 wdg=2 bus=X_4067585E_T_07570.1.2.3 kv=0.48 kVA=45 %loadloss=0.811 %noloadloss=.184 XHL=1.765 emerghkva=63
New Transformer.4075713E phases=3 wdg=1 bus=4075713E_T_07570.1.2.3 conn=wye kv=12.00 kVA=20 wdg=2 bus=X_4075713E_T_07570.1.2.3 kv=0.48 kVA=20 %loadloss=1.008 %noloadloss=.230 XHL=1.803 emerghkva=28
New Transformer.409265E phases=3 wdg=1 bus=409265E_T_07570.1.2.3 conn=wye kv=12.00 kVA=30 wdg=2 bus=X_409265E_T_07570.1.2.3 kv=0.48 kVA=30 %loadloss=0.7221 %noloadloss=.2423 XHL=1.5158 emerghkva=42
New Transformer.4097786E phases=3 wdg=1 bus=4097786E_T_07570.1.2.3 conn=wye kv=12.00 kVA=75 wdg=2 bus=X_4097786E_T_07570.1.2.3 kv=0.48 kVA=75 %loadloss=0.749 %noloadloss=.171 XHL=1.773 emerghkva=105
New Transformer.4099096E phases=3 wdg=1 bus=4099096E_T_07570.1.2.3 conn=wye kv=12.00 kVA=30 wdg=2 bus=X_4099096E_T_07570.1.2.3 kv=0.48 kVA=30 %loadloss=0.7221 %noloadloss=.2423 XHL=1.5158 emerghkva=42
New Transformer.4099100E_07570$4099100E_T_0757-1 phases=3 wdg=1 bus=4099100E_T_07570.1.2.3 conn=wye kv=12.00 kVA=50 wdg=2 bus=X_4099100E_T_07570.1.2.3 kv=0.416 kVA=50 %loadloss=0.7380 %noloadloss=.1987 XHL=1.7532 emerghkva=70
New Transformer.4099194E phases=3 wdg=1 bus=4099194E_T_07570.1.2.3 conn=wye kv=12.00 kVA=75 wdg=2 bus=X_4099194E_T_07570.1.2.3 kv=0.48 kVA=75 %loadloss=0.749 %noloadloss=.171 XHL=1.773 emerghkva=105
New Transformer.4130912E phases=3 wdg=1 bus=4130912E_T_07570.1.2.3 conn=wye kv=12.00 kVA=30 wdg=2 bus=X_4130912E_T_07570.1.2.3 kv=0.48 kVA=30 %loadloss=0.831 %noloadloss=.219 XHL=1.686 emerghkva=42
New Transformer.4130913E phases=3 wdg=1 bus=4130913E_T_07570.1.2.3 conn=wye kv=12.00 kVA=112 wdg=2 bus=X_4130913E_T_07570.1.2.3 kv=0.48 kVA=112 %loadloss=0.6991 %noloadloss=.2298 XHL=3 emerghkva=156.8
New Transformer.4167349E phases=3 wdg=1 bus=4167349E_T_07570.1.2.3 conn=wye kv=12.00 kVA=25 wdg=2 bus=X_4167349E_T_07570.1.2.3 kv=0.48 kVA=25 %loadloss=1.008 %noloadloss=.230 XHL=1.803 emerghkva=35
New Transformer.4180602E phases=3 wdg=1 bus=4180602E_T_07570.1.2.3 conn=wye kv=12.00 kVA=20 wdg=2 bus=X_4180602E_T_07570.1.2.3 kv=0.48 kVA=20 %loadloss=1.008 %noloadloss=.230 XHL=1.803 emerghkva=28
New Transformer.4210436E phases=3 wdg=1 bus=4210436E_T_07570.1.2.3 conn=wye kv=12.00 kVA=45 wdg=2 bus=X_4210436E_T_07570.1.2.3 kv=0.48 kVA=45 %loadloss=0.7380 %noloadloss=.1987 XHL=1.7532 emerghkva=63
New Transformer.4214587E phases=3 wdg=1 bus=4214587E_T_07570.1.2.3 conn=wye kv=12.00 kVA=25 wdg=2 bus=X_4214587E_T_07570.1.2.3 kv=0.48 kVA=25 %loadloss=1.008 %noloadloss=.230 XHL=1.803 emerghkva=35
New Transformer.4214689E phases=3 wdg=1 bus=4214689E_T_07570.1.2.3 conn=wye kv=12.00 kVA=25 wdg=2 bus=X_4214689E_T_07570.1.2.3 kv=0.48 kVA=25 %loadloss=1.008 %noloadloss=.230 XHL=1.803 emerghkva=35
New Transformer.4214799E phases=3 wdg=1 bus=4214799E_T_07570.1.2.3 conn=wye kv=12.00 kVA=75 wdg=2 bus=X_4214799E_T_07570.1.2.3 kv=0.48 kVA=75 %loadloss=0.749 %noloadloss=.171 XHL=1.773 emerghkva=105
New Transformer.4226560E phases=3 wdg=1 bus=4226560E_T_07570.1.2.3 conn=wye kv=12.00 kVA=35 wdg=2 bus=X_4226560E_T_07570.1.2.3 kv=0.48 kVA=35 %loadloss=0.7221 %noloadloss=.2423 XHL=1.5158 emerghkva=49
New Transformer.4227069E_07570$4227069E_T_0757-1 phases=3 wdg=1 bus=4227069E_T_07570.1.2.3 conn=wye kv=12.00 kVA=75 wdg=2 bus=X_4227069E_T_07570.1.2.3 kv=0.416 kVA=75 %loadloss=0.749 %noloadloss=.171 XHL=1.773 emerghkva=105
New Transformer.4251734E phases=3 wdg=1 bus=4251734E_T_07570.1.2.3 conn=wye kv=12.00 kVA=20 wdg=2 bus=X_4251734E_T_07570.1.2.3 kv=0.48 kVA=20 %loadloss=0.7639 %noloadloss=.0851 XHL=2.1 emerghkva=28
New Transformer.4252648E phases=3 wdg=1 bus=4252648E_T_07570.1.2.3 conn=wye kv=12.00 kVA=45 wdg=2 bus=X_4252648E_T_07570.1.2.3 kv=0.48 kVA=45 %loadloss=0.811 %noloadloss=.184 XHL=1.765 emerghkva=63
New Transformer.4274192E phases=3 wdg=1 bus=4274192E_T_07570.1.2.3 conn=wye kv=12.00 kVA=75 wdg=2 bus=X_4274192E_T_07570.1.2.3 kv=0.48 kVA=75 %loadloss=0.7578 %noloadloss=.1348 XHL=2.41 emerghkva=105
New Transformer.4274405E phases=3 wdg=1 bus=4274405E_T_07570.1.2.3 conn=wye kv=12.00 kVA=112 wdg=2 bus=X_4274405E_T_07570.1.2.3 kv=0.48 kVA=112 %loadloss=0.6991 %noloadloss=.2298 XHL=3 emerghkva=156.8
New Transformer.4276440E_07570$4276440E_T_0757-1 phases=3 wdg=1 bus=4276440E_T_07570.1.2.3 conn=wye kv=12.00 kVA=50 wdg=2 bus=X_4276440E_T_07570.1.2.3 kv=0.416 kVA=50 %loadloss=0.7380 %noloadloss=.1987 XHL=1.7532 emerghkva=70
New Transformer.4276441E phases=3 wdg=1 bus=4276441E_T_07570.1.2.3 conn=wye kv=12.00 kVA=38 wdg=2 bus=X_4276441E_T_07570.1.2.3 kv=0.48 kVA=38 %loadloss=0.7221 %noloadloss=.2423 XHL=1.5158 emerghkva=53.2
New Transformer.4276446E phases=3 wdg=1 bus=4276446E_T_07570.1.2.3 conn=wye kv=12.00 kVA=50 wdg=2 bus=X_4276446E_T_07570.1.2.3 kv=0.48 kVA=50 %loadloss=0.7380 %noloadloss=.1987 XHL=1.7532 emerghkva=70
New Transformer.4289368E_07570$4289368E_T_0757-1 phases=3 wdg=1 bus=4289368E_T_07570.1.2.3 conn=wye kv=12.00 kVA=20 wdg=2 bus=X_4289368E_T_07570.1.2.3 kv=0.416 kVA=20 %loadloss=1.008 %noloadloss=.230 XHL=1.803 emerghkva=28
New Transformer.4289382E phases=3 wdg=1 bus=4289382E_T_07570.1.2.3 conn=wye kv=12.00 kVA=15 wdg=2 bus=X_4289382E_T_07570.1.2.3 kv=0.48 kVA=15 %loadloss=0.7639 %noloadloss=.0851 XHL=2.1 emerghkva=21
New Transformer.4296072E phases=3 wdg=1 bus=4296072E_T_07570.1.2.3 conn=wye kv=12.00 kVA=68 wdg=2 bus=X_4296072E_T_07570.1.2.3 kv=0.48 kVA=68 %loadloss=0.749 %noloadloss=.171 XHL=1.773 emerghkva=95.2
New Transformer.4316552ET phases=3 wdg=1 bus=4316552ET_T_07570.1.2.3 conn=wye kv=12.00 kVA=112 wdg=2 bus=X_4316552ET_T_07570.1.2.3 kv=0.48 kVA=112 %loadloss=0.6991 %noloadloss=.2298 XHL=3 emerghkva=156.8
!New Transformer.4335665E_07570$4335665E_T_0757-1 phases=3 wdg=1 bus=4335665E_T_07570.1.2.3 conn=wye kv=12.00 kVA=0 wdg=2 bus=X_4335665E_T_07570.1.2.3 kv=0.416 kVA=0 %loadloss=1.022 %noloadloss=.3221 XHL=1.707 emerghkva=0
New Transformer.4340701E_07570$4340701E_T_0757-1 phases=3 wdg=1 bus=4340701E_T_07570.1.2.3 conn=wye kv=12.00 kVA=20 wdg=2 bus=X_4340701E_T_07570.1.2.3 kv=0.416 kVA=20 %loadloss=0.7639 %noloadloss=.0851 XHL=2.1 emerghkva=28
New Transformer.4342612E phases=3 wdg=1 bus=4342612E_T_07570.1.2.3 conn=wye kv=12.00 kVA=25 wdg=2 bus=X_4342612E_T_07570.1.2.3 kv=0.48 kVA=25 %loadloss=1.008 %noloadloss=.230 XHL=1.803 emerghkva=35
New Transformer.4354639E_07570$4354639E_T_0757-1 phases=3 wdg=1 bus=4354639E_T_07570.1.2.3 conn=wye kv=12.00 kVA=75 wdg=2 bus=X_4354639E_T_07570.1.2.3 kv=0.416 kVA=75 %loadloss=0.749 %noloadloss=.171 XHL=1.773 emerghkva=105
New Transformer.4354747E phases=3 wdg=1 bus=4354747E_T_07570.1.2.3 conn=wye kv=12.00 kVA=75 wdg=2 bus=X_4354747E_T_07570.1.2.3 kv=0.48 kVA=75 %loadloss=0.749 %noloadloss=.171 XHL=1.773 emerghkva=105
New Transformer.4354805E_07570$4354805E_T_0757-1 phases=3 wdg=1 bus=4354805E_T_07570.1.2.3 conn=wye kv=12.00 kVA=20 wdg=2 bus=X_4354805E_T_07570.1.2.3 kv=0.416 kVA=20 %loadloss=1.008 %noloadloss=.230 XHL=1.803 emerghkva=28
New Transformer.4362819E phases=3 wdg=1 bus=4362819E_T_07570.1.2.3 conn=wye kv=12.00 kVA=35 wdg=2 bus=X_4362819E_T_07570.1.2.3 kv=0.48 kVA=35 %loadloss=0.7221 %noloadloss=.2423 XHL=1.5158 emerghkva=49
New Transformer.4362820E phases=3 wdg=1 bus=4362820E_T_07570.1.2.3 conn=wye kv=12.00 kVA=38 wdg=2 bus=X_4362820E_T_07570.1.2.3 kv=0.48 kVA=38 %loadloss=0.7221 %noloadloss=.2423 XHL=1.5158 emerghkva=53.2
New Transformer.4362821E phases=3 wdg=1 bus=4362821E_T_07570.1.2.3 conn=wye kv=12.00 kVA=30 wdg=2 bus=X_4362821E_T_07570.1.2.3 kv=0.48 kVA=30 %loadloss=0.831 %noloadloss=.219 XHL=1.686 emerghkva=42
New Transformer.4362828E phases=3 wdg=1 bus=4362828E_T_07570.1.2.3 conn=wye kv=12.00 kVA=25 wdg=2 bus=X_4362828E_T_07570.1.2.3 kv=0.48 kVA=25 %loadloss=1.008 %noloadloss=.230 XHL=1.803 emerghkva=35
New Transformer.4362829E phases=3 wdg=1 bus=4362829E_T_07570.1.2.3 conn=wye kv=12.00 kVA=75 wdg=2 bus=X_4362829E_T_07570.1.2.3 kv=0.48 kVA=75 %loadloss=0.749 %noloadloss=.171 XHL=1.773 emerghkva=105
New Transformer.4362834E phases=3 wdg=1 bus=4362834E_T_07570.1.2.3 conn=wye kv=12.00 kVA=75 wdg=2 bus=X_4362834E_T_07570.1.2.3 kv=0.48 kVA=75 %loadloss=0.749 %noloadloss=.171 XHL=1.773 emerghkva=105
New Transformer.4362842E phases=1 wdg=1 bus=4362842E_T_07570.1.3 conn=delta kv=12.00 kVA=10 wdg=2 bus=X_4362842E_T_07570.3 kv=0.24 kVA=10 %loadloss=1.153 %noloadloss=.318 XHL=1.888 emerghkva=14
New Transformer.4363394E_07570$4363394E_T_0757-1 phases=3 wdg=1 bus=4363394E_T_07570.1.2.3 conn=wye kv=12.00 kVA=50 wdg=2 bus=X_4363394E_T_07570.1.2.3 kv=0.416 kVA=50 %loadloss=0.811 %noloadloss=.184 XHL=1.765 emerghkva=70
New Transformer.4363729E_07570$4363729E_T_0757-1 phases=3 wdg=1 bus=4363729E_T_07570.1.2.3 conn=wye kv=12.00 kVA=30 wdg=2 bus=X_4363729E_T_07570.1.2.3 kv=0.416 kVA=30 %loadloss=0.7221 %noloadloss=.2423 XHL=1.5158 emerghkva=42
New Transformer.4364055E_07570$4364055E_T_0757-1 phases=3 wdg=1 bus=4364055E_T_07570.1.2.3 conn=wye kv=12.00 kVA=50 wdg=2 bus=X_4364055E_T_07570.1.2.3 kv=0.416 kVA=50 %loadloss=0.811 %noloadloss=.184 XHL=1.765 emerghkva=70
New Transformer.4368157E phases=3 wdg=1 bus=4368157E_T_07570.1.2.3 conn=wye kv=12.00 kVA=15 wdg=2 bus=X_4368157E_T_07570.1.2.3 kv=0.48 kVA=15 %loadloss=1.008 %noloadloss=.230 XHL=1.803 emerghkva=21
New Transformer.4368160E phases=3 wdg=1 bus=4368160E_T_07570.1.2.3 conn=wye kv=12.00 kVA=45 wdg=2 bus=X_4368160E_T_07570.1.2.3 kv=0.48 kVA=45 %loadloss=0.7380 %noloadloss=.1987 XHL=1.7532 emerghkva=63
New Transformer.4368161E phases=3 wdg=1 bus=4368161E_T_07570.1.2.3 conn=wye kv=12.00 kVA=25 wdg=2 bus=X_4368161E_T_07570.1.2.3 kv=0.48 kVA=25 %loadloss=0.7639 %noloadloss=.0851 XHL=2.1 emerghkva=35
New Transformer.4368171E phases=3 wdg=1 bus=4368171E_T_07570.1.2.3 conn=wye kv=12.00 kVA=10 wdg=2 bus=X_4368171E_T_07570.1.2.3 kv=0.48 kVA=10 %loadloss=1.022 %noloadloss=.3221 XHL=1.707 emerghkva=14
New Transformer.4368659E phases=3 wdg=1 bus=4368659E_T_07570.1.2.3 conn=wye kv=12.00 kVA=75 wdg=2 bus=X_4368659E_T_07570.1.2.3 kv=0.48 kVA=75 %loadloss=0.749 %noloadloss=.171 XHL=1.773 emerghkva=105
New Transformer.4368660E phases=3 wdg=1 bus=4368660E_T_07570.1.2.3 conn=wye kv=12.00 kVA=75 wdg=2 bus=X_4368660E_T_07570.1.2.3 kv=0.48 kVA=75 %loadloss=0.749 %noloadloss=.171 XHL=1.773 emerghkva=105
New Transformer.4368661E phases=3 wdg=1 bus=4368661E_T_07570.1.2.3 conn=wye kv=12.00 kVA=75 wdg=2 bus=X_4368661E_T_07570.1.2.3 kv=0.48 kVA=75 %loadloss=0.749 %noloadloss=.171 XHL=1.773 emerghkva=105
New Transformer.4368663E phases=3 wdg=1 bus=4368663E_T_07570.1.2.3 conn=wye kv=12.00 kVA=25 wdg=2 bus=X_4368663E_T_07570.1.2.3 kv=0.48 kVA=25 %loadloss=1.008 %noloadloss=.230 XHL=1.803 emerghkva=35
New Transformer.4368667E phases=3 wdg=1 bus=4368667E_T_07570.1.2.3 conn=wye kv=12.00 kVA=125 wdg=2 bus=X_4368667E_T_07570.1.2.3 kv=0.48 kVA=125 %loadloss=0.6991 %noloadloss=.2298 XHL=3 emerghkva=175
New Transformer.4368668E phases=3 wdg=1 bus=4368668E_T_07570.1.2.3 conn=wye kv=12.00 kVA=25 wdg=2 bus=X_4368668E_T_07570.1.2.3 kv=0.48 kVA=25 %loadloss=1.008 %noloadloss=.230 XHL=1.803 emerghkva=35
New Transformer.4368670E phases=3 wdg=1 bus=4368670E_T_07570.1.2.3 conn=wye kv=12.00 kVA=45 wdg=2 bus=X_4368670E_T_07570.1.2.3 kv=0.48 kVA=45 %loadloss=0.7380 %noloadloss=.1987 XHL=1.7532 emerghkva=63
New Transformer.4419220E_07570$4419220E_T_0757-1 phases=3 wdg=1 bus=4419220E_T_07570.1.2.3 conn=wye kv=12.00 kVA=150 wdg=2 bus=X_4419220E_T_07570.1.2.3 kv=0.416 kVA=150 %loadloss=0.6991 %noloadloss=.2298 XHL=3 emerghkva=210
New Transformer.4477301E_07570$4477301E_T_0757-1 phases=3 wdg=1 bus=4477301E_T_07570.1.2.3 conn=wye kv=12.00 kVA=50 wdg=2 bus=X_4477301E_T_07570.1.2.3 kv=0.416 kVA=50 %loadloss=0.811 %noloadloss=.184 XHL=1.765 emerghkva=70
New Transformer.4477501E phases=3 wdg=1 bus=4477501E_T_07570.1.2.3 conn=wye kv=12.00 kVA=25 wdg=2 bus=X_4477501E_T_07570.1.2.3 kv=0.48 kVA=25 %loadloss=1.008 %noloadloss=.230 XHL=1.803 emerghkva=35
New Transformer.4505903E_07570$4505903E_T_0757-1 phases=3 wdg=1 bus=4505903E_T_07570.1.2.3 conn=wye kv=12.00 kVA=30 wdg=2 bus=X_4505903E_T_07570.1.2.3 kv=0.416 kVA=30 %loadloss=0.7221 %noloadloss=.2423 XHL=1.5158 emerghkva=42
New Transformer.451201E phases=3 wdg=1 bus=451201E_T_07570.1.2.3 conn=wye kv=12.00 kVA=38 wdg=2 bus=X_451201E_T_07570.1.2.3 kv=0.48 kVA=38 %loadloss=0.831 %noloadloss=.219 XHL=1.686 emerghkva=53.2
New Transformer.4520469E phases=3 wdg=1 bus=4520469E_T_07570.1.2.3 conn=wye kv=12.00 kVA=10 wdg=2 bus=X_4520469E_T_07570.1.2.3 kv=0.48 kVA=10 %loadloss=1.153 %noloadloss=.318 XHL=1.888 emerghkva=14
New Transformer.4540498E_07570$4540498E_T_0757-1 phases=3 wdg=1 bus=4540498E_T_07570.1.2.3 conn=wye kv=12.00 kVA=50 wdg=2 bus=X_4540498E_T_07570.1.2.3 kv=0.416 kVA=50 %loadloss=0.811 %noloadloss=.184 XHL=1.765 emerghkva=70
New Transformer.4540721E phases=3 wdg=1 bus=4540721E_T_07570.1.2.3 conn=wye kv=12.00 kVA=88 wdg=2 bus=X_4540721E_T_07570.1.2.3 kv=0.48 kVA=88 %loadloss=0.715 %noloadloss=.173 XHL=1.845 emerghkva=123.2
New Transformer.4540960E phases=3 wdg=1 bus=4540960E_T_07570.1.2.3 conn=wye kv=12.00 kVA=25 wdg=2 bus=X_4540960E_T_07570.1.2.3 kv=0.48 kVA=25 %loadloss=1.008 %noloadloss=.230 XHL=1.803 emerghkva=35
New Transformer.4540963E_07570$4540963E_T_0757-1 phases=3 wdg=1 bus=4540963E_T_07570.1.2.3 conn=wye kv=12.00 kVA=30 wdg=2 bus=X_4540963E_T_07570.1.2.3 kv=0.416 kVA=30 %loadloss=0.831 %noloadloss=.219 XHL=1.686 emerghkva=42
New Transformer.4552976E_07570$4552976E_T_0757-1 phases=3 wdg=1 bus=4552976E_T_07570.1.2.3 conn=wye kv=12.00 kVA=20 wdg=2 bus=X_4552976E_T_07570.1.2.3 kv=0.416 kVA=20 %loadloss=0.7639 %noloadloss=.0851 XHL=2.1 emerghkva=28
New Transformer.4552982E_07570$4552982E_T_0757-1 phases=3 wdg=1 bus=4552982E_T_07570.1.2.3 conn=wye kv=12.00 kVA=20 wdg=2 bus=X_4552982E_T_07570.1.2.3 kv=0.416 kVA=20 %loadloss=0.7639 %noloadloss=.0851 XHL=2.1 emerghkva=28
New Transformer.4553227E phases=3 wdg=1 bus=4553227E_T_07570.1.2.3 conn=wye kv=12.00 kVA=50 wdg=2 bus=X_4553227E_T_07570.1.2.3 kv=0.48 kVA=50 %loadloss=0.811 %noloadloss=.184 XHL=1.765 emerghkva=70
New Transformer.4553228E phases=3 wdg=1 bus=4553228E_T_07570.1.2.3 conn=wye kv=12.00 kVA=15 wdg=2 bus=X_4553228E_T_07570.1.2.3 kv=0.48 kVA=15 %loadloss=0.7639 %noloadloss=.0851 XHL=2.1 emerghkva=21
New Transformer.4553230E phases=3 wdg=1 bus=4553230E_T_07570.1.2.3 conn=wye kv=12.00 kVA=10 wdg=2 bus=X_4553230E_T_07570.1.2.3 kv=0.48 kVA=10 %loadloss=1.022 %noloadloss=.3221 XHL=1.707 emerghkva=14
New Transformer.4553233E phases=3 wdg=1 bus=4553233E_T_07570.1.2.3 conn=wye kv=12.00 kVA=15 wdg=2 bus=X_4553233E_T_07570.1.2.3 kv=0.48 kVA=15 %loadloss=1.008 %noloadloss=.230 XHL=1.803 emerghkva=21
New Transformer.4553236E_07570$4553236E_T_0757-1 phases=3 wdg=1 bus=4553236E_T_07570.1.2.3 conn=wye kv=12.00 kVA=20 wdg=2 bus=X_4553236E_T_07570.1.2.3 kv=0.416 kVA=20 %loadloss=0.7639 %noloadloss=.0851 XHL=2.1 emerghkva=28
New Transformer.4553240E_07570$4553240E_T_0757-1 phases=3 wdg=1 bus=4553240E_T_07570.1.2.3 conn=wye kv=12.00 kVA=20 wdg=2 bus=X_4553240E_T_07570.1.2.3 kv=0.416 kVA=20 %loadloss=1.008 %noloadloss=.230 XHL=1.803 emerghkva=28
New Transformer.4587530E phases=3 wdg=1 bus=4587530E_T_07570.1.2.3 conn=wye kv=12.00 kVA=15 wdg=2 bus=X_4587530E_T_07570.1.2.3 kv=0.48 kVA=15 %loadloss=0.7639 %noloadloss=.0851 XHL=2.1 emerghkva=21
New Transformer.458811E_07570$458811E_T_07570-1 phases=3 wdg=1 bus=458811E_T_07570.1.2.3 conn=wye kv=12.00 kVA=20 wdg=2 bus=X_458811E_T_07570.1.2.3 kv=0.416 kVA=20 %loadloss=1.008 %noloadloss=.230 XHL=1.803 emerghkva=28
New Transformer.4629401E_07570$4629401E_T_0757-1 phases=3 wdg=1 bus=4629401E_T_07570.1.2.3 conn=wye kv=12.00 kVA=30 wdg=2 bus=X_4629401E_T_07570.1.2.3 kv=0.416 kVA=30 %loadloss=0.7221 %noloadloss=.2423 XHL=1.5158 emerghkva=42
New Transformer.4632239E phases=3 wdg=1 bus=4632239E_T_07570.1.2.3 conn=wye kv=12.00 kVA=10 wdg=2 bus=X_4632239E_T_07570.1.2.3 kv=0.48 kVA=10 %loadloss=1.153 %noloadloss=.318 XHL=1.888 emerghkva=14
New Transformer.4632241E phases=3 wdg=1 bus=4632241E_T_07570.1.2.3 conn=wye kv=12.00 kVA=25 wdg=2 bus=X_4632241E_T_07570.1.2.3 kv=0.48 kVA=25 %loadloss=1.008 %noloadloss=.230 XHL=1.803 emerghkva=35
New Transformer.4632242E phases=3 wdg=1 bus=4632242E_T_07570.1.2.3 conn=wye kv=12.00 kVA=38 wdg=2 bus=X_4632242E_T_07570.1.2.3 kv=0.48 kVA=38 %loadloss=0.831 %noloadloss=.219 XHL=1.686 emerghkva=53.2
New Transformer.4632244E phases=3 wdg=1 bus=4632244E_T_07570.1.2.3 conn=wye kv=12.00 kVA=50 wdg=2 bus=X_4632244E_T_07570.1.2.3 kv=0.48 kVA=50 %loadloss=0.7380 %noloadloss=.1987 XHL=1.7532 emerghkva=70
New Transformer.4658388E phases=3 wdg=1 bus=4658388E_T_07570.1.2.3 conn=wye kv=12.00 kVA=112 wdg=2 bus=X_4658388E_T_07570.1.2.3 kv=0.48 kVA=112 %loadloss=0.6991 %noloadloss=.2298 XHL=3 emerghkva=156.8
New Transformer.4659046E_07570$4659046E_T_0757-1 phases=3 wdg=1 bus=4659046E_T_07570.1.2.3 conn=wye kv=12.00 kVA=30 wdg=2 bus=X_4659046E_T_07570.1.2.3 kv=0.416 kVA=30 %loadloss=0.7221 %noloadloss=.2423 XHL=1.5158 emerghkva=42
New Transformer.4659047E_07570$4659047E_T_0757-1 phases=3 wdg=1 bus=4659047E_T_07570.1.2.3 conn=wye kv=12.00 kVA=50 wdg=2 bus=X_4659047E_T_07570.1.2.3 kv=0.416 kVA=50 %loadloss=0.811 %noloadloss=.184 XHL=1.765 emerghkva=70
New Transformer.4661652E_07570$4661652E_T_0757-1 phases=3 wdg=1 bus=4661652E_T_07570.1.2.3 conn=wye kv=12.00 kVA=20 wdg=2 bus=X_4661652E_T_07570.1.2.3 kv=0.416 kVA=20 %loadloss=0.7639 %noloadloss=.0851 XHL=2.1 emerghkva=28
New Transformer.4661656E_07570$4661656E_T_0757-1 phases=3 wdg=1 bus=4661656E_T_07570.1.2.3 conn=wye kv=12.00 kVA=150 wdg=2 bus=X_4661656E_T_07570.1.2.3 kv=0.416 kVA=150 %loadloss=0.6991 %noloadloss=.2298 XHL=3 emerghkva=210
New Transformer.4669184E phases=3 wdg=1 bus=4669184E_T_07570.1.2.3 conn=wye kv=12.00 kVA=20 wdg=2 bus=X_4669184E_T_07570.1.2.3 kv=0.48 kVA=20 %loadloss=0.7639 %noloadloss=.0851 XHL=2.1 emerghkva=28
New Transformer.4671820E phases=3 wdg=1 bus=4671820E_T_07570.1.2.3 conn=wye kv=12.00 kVA=25 wdg=2 bus=X_4671820E_T_07570.1.2.3 kv=0.48 kVA=25 %loadloss=0.7639 %noloadloss=.0851 XHL=2.1 emerghkva=35
New Transformer.4683170E_07570$4683170E_T_0757-1 phases=3 wdg=1 bus=4683170E_T_07570.1.2.3 conn=wye kv=12.00 kVA=50 wdg=2 bus=X_4683170E_T_07570.1.2.3 kv=0.416 kVA=50 %loadloss=0.811 %noloadloss=.184 XHL=1.765 emerghkva=70
New Transformer.4693T_07570$4693T_T_07570-1 phases=3 wdg=1 bus=4693T_T_07570.1.2.3 conn=wye kv=12.00 kVA=20 wdg=2 bus=X_4693T_T_07570.1.2.3 kv=0.416 kVA=20 %loadloss=1.008 %noloadloss=.230 XHL=1.803 emerghkva=28
New Transformer.4694280E phases=3 wdg=1 bus=4694280E_T_07570.1.2.3 conn=wye kv=12.00 kVA=75 wdg=2 bus=X_4694280E_T_07570.1.2.3 kv=0.48 kVA=75 %loadloss=0.7578 %noloadloss=.1348 XHL=2.41 emerghkva=105
New Transformer.4694481E_07570$4694481E_T_0757-1 phases=3 wdg=1 bus=4694481E_T_07570.1.2.3 conn=wye kv=12.00 kVA=30 wdg=2 bus=X_4694481E_T_07570.1.2.3 kv=0.416 kVA=30 %loadloss=0.7221 %noloadloss=.2423 XHL=1.5158 emerghkva=42
New Transformer.4695030E phases=3 wdg=1 bus=4695030E_T_07570.1.2.3 conn=wye kv=12.00 kVA=75 wdg=2 bus=X_4695030E_T_07570.1.2.3 kv=0.48 kVA=75 %loadloss=0.7578 %noloadloss=.1348 XHL=2.41 emerghkva=105
New Transformer.4696734E phases=3 wdg=1 bus=4696734E_T_07570.1.2.3 conn=wye kv=12.00 kVA=112 wdg=2 bus=X_4696734E_T_07570.1.2.3 kv=0.48 kVA=112 %loadloss=0.6991 %noloadloss=.2298 XHL=3 emerghkva=156.8
New Transformer.4699729E phases=3 wdg=1 bus=4699729E_T_07570.1.2.3 conn=wye kv=12.00 kVA=45 wdg=2 bus=X_4699729E_T_07570.1.2.3 kv=0.48 kVA=45 %loadloss=0.811 %noloadloss=.184 XHL=1.765 emerghkva=63
New Transformer.4699730E phases=3 wdg=1 bus=4699730E_T_07570.1.2.3 conn=wye kv=12.00 kVA=45 wdg=2 bus=X_4699730E_T_07570.1.2.3 kv=0.48 kVA=45 %loadloss=0.7380 %noloadloss=.1987 XHL=1.7532 emerghkva=63
New Transformer.4699736E_07570$4699736E_T_0757-1 phases=3 wdg=1 bus=4699736E_T_07570.1.2.3 conn=wye kv=12.00 kVA=150 wdg=2 bus=X_4699736E_T_07570.1.2.3 kv=0.416 kVA=150 %loadloss=0.6991 %noloadloss=.2298 XHL=3 emerghkva=210
New Transformer.4699954E phases=3 wdg=1 bus=4699954E_T_07570.1.2.3 conn=wye kv=12.00 kVA=100 wdg=2 bus=X_4699954E_T_07570.1.2.3 kv=0.48 kVA=100 %loadloss=0.715 %noloadloss=.173 XHL=1.845 emerghkva=140
New Transformer.4699973E_07570$4699973E_T_0757-1 phases=3 wdg=1 bus=4699973E_T_07570.1.2.3 conn=wye kv=12.00 kVA=75 wdg=2 bus=X_4699973E_T_07570.1.2.3 kv=0.416 kVA=75 %loadloss=0.749 %noloadloss=.171 XHL=1.773 emerghkva=105
New Transformer.4700044E phases=3 wdg=1 bus=4700044E_T_07570.1.2.3 conn=wye kv=12.00 kVA=150 wdg=2 bus=X_4700044E_T_07570.1.2.3 kv=0.48 kVA=150 %loadloss=0.6991 %noloadloss=.2298 XHL=3 emerghkva=210
New Transformer.4700177E phases=3 wdg=1 bus=4700177E_T_07570.1.2.3 conn=wye kv=12.00 kVA=112 wdg=2 bus=X_4700177E_T_07570.1.2.3 kv=0.48 kVA=112 %loadloss=0.6991 %noloadloss=.2298 XHL=3 emerghkva=156.8
New Transformer.4700793E phases=3 wdg=1 bus=4700793E_T_07570.1.2.3 conn=wye kv=12.00 kVA=112 wdg=2 bus=X_4700793E_T_07570.1.2.3 kv=0.48 kVA=112 %loadloss=0.6991 %noloadloss=.2298 XHL=3 emerghkva=156.8
New Transformer.4705526E phases=3 wdg=1 bus=4705526E_T_07570.1.2.3 conn=wye kv=12.00 kVA=38 wdg=2 bus=X_4705526E_T_07570.1.2.3 kv=0.48 kVA=38 %loadloss=0.831 %noloadloss=.219 XHL=1.686 emerghkva=53.2
New Transformer.4705656E phases=3 wdg=1 bus=4705656E_T_07570.1.2.3 conn=wye kv=12.00 kVA=150 wdg=2 bus=X_4705656E_T_07570.1.2.3 kv=0.48 kVA=150 %loadloss=0.6991 %noloadloss=.2298 XHL=3 emerghkva=210
New Transformer.4772512E_07570$4772512E_T_0757-1 phases=3 wdg=1 bus=4772512E_T_07570.1.2.3 conn=wye kv=12.00 kVA=150 wdg=2 bus=X_4772512E_T_07570.1.2.3 kv=0.416 kVA=150 %loadloss=0.6991 %noloadloss=.2298 XHL=3 emerghkva=210
New Transformer.4772513E phases=3 wdg=1 bus=4772513E_T_07570.1.2.3 conn=wye kv=12.00 kVA=225 wdg=2 bus=X_4772513E_T_07570.1.2.3 kv=0.48 kVA=225 %loadloss=0.6887 %noloadloss=.1627 XHL=3.7349 emerghkva=315
New Transformer.4780491E phases=3 wdg=1 bus=4780491E_T_07570.1.2.3 conn=wye kv=12.00 kVA=75 wdg=2 bus=X_4780491E_T_07570.1.2.3 kv=0.48 kVA=75 %loadloss=0.749 %noloadloss=.171 XHL=1.773 emerghkva=105
New Transformer.4784743E phases=3 wdg=1 bus=4784743E_T_07570.1.2.3 conn=wye kv=12.00 kVA=125 wdg=2 bus=X_4784743E_T_07570.1.2.3 kv=0.48 kVA=125 %loadloss=0.6991 %noloadloss=.2298 XHL=3 emerghkva=175
!New Transformer.481736E phases=3 wdg=1 bus=481736E_T_07570.1.2.3 conn=wye kv=12.00 kVA=0 wdg=2 bus=X_481736E_T_07570.1.2.3 kv=0.48 kVA=0 %loadloss=1.153 %noloadloss=.318 XHL=1.888 emerghkva=0
New Transformer.546390E phases=3 wdg=1 bus=546390E_T_07570.1.2.3 conn=wye kv=12.00 kVA=150 wdg=2 bus=X_546390E_T_07570.1.2.3 kv=0.48 kVA=150 %loadloss=0.6991 %noloadloss=.2298 XHL=3 emerghkva=210
New Transformer.591841E_07570$591841E_T_07570-1 phases=3 wdg=1 bus=591841E_T_07570.1.2.3 conn=wye kv=12.00 kVA=75 wdg=2 bus=X_591841E_T_07570.1.2.3 kv=0.416 kVA=75 %loadloss=0.7578 %noloadloss=.1348 XHL=2.41 emerghkva=105
!New Transformer.638022E_07570$638022E_T_07570-1 phases=3 wdg=1 bus=638022E_T_07570.1.2.3 conn=wye kv=12.00 kVA=0 wdg=2 bus=X_638022E_T_07570.1.2.3 kv=0.416 kVA=0 %loadloss=1.153 %noloadloss=.318 XHL=1.888 emerghkva=0
New Transformer.744577E phases=3 wdg=1 bus=744577E_T_07570.1.2.3 conn=wye kv=12.00 kVA=75 wdg=2 bus=X_744577E_T_07570.1.2.3 kv=0.48 kVA=75 %loadloss=0.749 %noloadloss=.171 XHL=1.773 emerghkva=105
New Transformer.744583E phases=3 wdg=1 bus=744583E_T_07570.1.2.3 conn=wye kv=12.00 kVA=25 wdg=2 bus=X_744583E_T_07570.1.2.3 kv=0.48 kVA=25 %loadloss=0.7639 %noloadloss=.0851 XHL=2.1 emerghkva=35
New Transformer.755716E phases=1 wdg=1 bus=755716E_T_07570.1.2 conn=delta kv=12.00 kVA=38 wdg=2 bus=X_755716E_T_07570.1 kv=0.24 kVA=38 %loadloss=0.831 %noloadloss=.219 XHL=1.686 emerghkva=53.2
New Transformer.765919E phases=3 wdg=1 bus=765919E_T_07570.1.2.3 conn=wye kv=12.00 kVA=150 wdg=2 bus=X_765919E_T_07570.1.2.3 kv=0.48 kVA=150 %loadloss=0.6991 %noloadloss=.2298 XHL=3 emerghkva=210
New Transformer.766011E phases=3 wdg=1 bus=766011E_T_07570.1.2.3 conn=wye kv=12.00 kVA=10 wdg=2 bus=X_766011E_T_07570.1.2.3 kv=0.48 kVA=10 %loadloss=1.153 %noloadloss=.318 XHL=1.888 emerghkva=14
New Transformer.7954T phases=3 wdg=1 bus=7954T_T_07570.1.2.3 conn=wye kv=12.00 kVA=75 wdg=2 bus=X_7954T_T_07570.1.2.3 kv=0.48 kVA=75 %loadloss=0.7578 %noloadloss=.1348 XHL=2.41 emerghkva=105
New Transformer.808076E_07570$808076E_T_07570-1 phases=3 wdg=1 bus=808076E_T_07570.1.2.3 conn=wye kv=12.00 kVA=20 wdg=2 bus=X_808076E_T_07570.1.2.3 kv=0.416 kVA=20 %loadloss=1.008 %noloadloss=.230 XHL=1.803 emerghkva=28
New Transformer.837633E phases=3 wdg=1 bus=837633E_T_07570.1.2.3 conn=wye kv=12.00 kVA=25 wdg=2 bus=X_837633E_T_07570.1.2.3 kv=0.48 kVA=25 %loadloss=0.7639 %noloadloss=.0851 XHL=2.1 emerghkva=35
New Transformer.837903E_07570$837903E_T_07570-1 phases=3 wdg=1 bus=837903E_T_07570.1.2.3 conn=wye kv=12.00 kVA=50 wdg=2 bus=X_837903E_T_07570.1.2.3 kv=0.416 kVA=50 %loadloss=0.7380 %noloadloss=.1987 XHL=1.7532 emerghkva=70
New Transformer.850250E_07570$850250E_T_07570-1 phases=1 wdg=1 bus=850250E_T_07570.1.2 conn=delta kv=12.00 kVA=30 wdg=2 bus=X_850250E_T_07570.1 kv=0.240 kVA=30 %loadloss=0.831 %noloadloss=.219 XHL=1.686 emerghkva=42
New Transformer.936059E phases=3 wdg=1 bus=936059E_T_07570.1.2.3 conn=wye kv=12.00 kVA=30 wdg=2 bus=X_936059E_T_07570.1.2.3 kv=0.48 kVA=30 %loadloss=0.831 %noloadloss=.219 XHL=1.686 emerghkva=42
New Transformer.974388E_07570$974388E_T_07570-1 phases=3 wdg=1 bus=974388E_T_07570.1.2.3 conn=wye kv=12.00 kVA=30 wdg=2 bus=X_974388E_T_07570.1.2.3 kv=0.416 kVA=30 %loadloss=0.7221 %noloadloss=.2423 XHL=1.5158 emerghkva=42
New Transformer.974521E phases=3 wdg=1 bus=974521E_T_07570.1.2.3 conn=wye kv=12.00 kVA=15 wdg=2 bus=X_974521E_T_07570.1.2.3 kv=0.48 kVA=15 %loadloss=1.008 %noloadloss=.230 XHL=1.803 emerghkva=21
New Transformer.B5372741 phases=3 wdg=1 bus=B5372741_T_07570.1.2.3 conn=wye kv=12.00 kVA=25 wdg=2 bus=X_B5372741_T_07570.1.2.3 kv=0.48 kVA=25 %loadloss=1.008 %noloadloss=.230 XHL=1.803 emerghkva=35
New Transformer.P5059072-1_T_07570$P5059072_T_-1 phases=3 wdg=1 bus=P5059072_T_07570.1.2.3 conn=wye kv=12.00 kVA=150 wdg=2 bus=X_P5059072_T_07570.1.2.3 kv=0.416 kVA=150 %loadloss=0.6991 %noloadloss=.2298 XHL=3 emerghkva=210
New Transformer.P5372742 phases=3 wdg=1 bus=P5372742_T_07570.1.2.3 conn=wye kv=12.00 kVA=75 wdg=2 bus=X_P5372742_T_07570.1.2.3 kv=0.48 kVA=75 %loadloss=0.7578 %noloadloss=.1348 XHL=2.41 emerghkva=105
New Transformer.P5393566 phases=3 wdg=1 bus=P5393566_T_07570.1.2.3 conn=wye kv=12.00 kVA=25 wdg=2 bus=X_P5393566_T_07570.1.2.3 kv=0.48 kVA=25 %loadloss=1.008 %noloadloss=.230 XHL=1.803 emerghkva=35
New Transformer.P5393567 phases=3 wdg=1 bus=P5393567_T_07570.1.2.3 conn=wye kv=12.00 kVA=50 wdg=2 bus=X_P5393567_T_07570.1.2.3 kv=0.48 kVA=50 %loadloss=0.811 %noloadloss=.184 XHL=1.765 emerghkva=70
New Transformer.P5403116 phases=3 wdg=1 bus=P5403116_T_07570.1.2.3 conn=wye kv=12.00 kVA=150 wdg=2 bus=X_P5403116_T_07570.1.2.3 kv=0.48 kVA=150 %loadloss=0.6991 %noloadloss=.2298 XHL=3 emerghkva=210
New Transformer.P5403117 phases=3 wdg=1 bus=P5403117_T_07570.1.2.3 conn=wye kv=12.00 kVA=25 wdg=2 bus=X_P5403117_T_07570.1.2.3 kv=0.48 kVA=25 %loadloss=1.008 %noloadloss=.230 XHL=1.803 emerghkva=35
New Transformer.P5403124 phases=1 wdg=1 bus=P5403124_T_07570.1.2 conn=delta kv=12.00 kVA=25 wdg=2 bus=X_P5403124_T_07570.1 kv=0.24 kVA=25 %loadloss=0.7639 %noloadloss=.0851 XHL=2.1 emerghkva=35
New Transformer.P5411968 phases=3 wdg=1 bus=P5411968_T_07570.1.2.3 conn=wye kv=12.00 kVA=75 wdg=2 bus=X_P5411968_T_07570.1.2.3 kv=0.48 kVA=75 %loadloss=0.7578 %noloadloss=.1348 XHL=2.41 emerghkva=105
New Transformer.P5411969 phases=3 wdg=1 bus=P5411969_T_07570.1.2.3 conn=wye kv=12.00 kVA=150 wdg=2 bus=X_P5411969_T_07570.1.2.3 kv=0.48 kVA=150 %loadloss=0.6991 %noloadloss=.2298 XHL=3 emerghkva=210
New Transformer.P5456297 phases=1 wdg=1 bus=P5456297_T_07570.1.2 conn=delta kv=12.00 kVA=25 wdg=2 bus=X_P5456297_T_07570.1 kv=0.24 kVA=25 %loadloss=0.7639 %noloadloss=.0851 XHL=2.1 emerghkva=35
New Transformer.P5476178-1_T_07570$P5476178_T_-1 phases=3 wdg=1 bus=P5476178_T_07570.1.2.3 conn=wye kv=12.00 kVA=150 wdg=2 bus=X_P5476178_T_07570.1.2.3 kv=0.416 kVA=150 %loadloss=0.6991 %noloadloss=.2298 XHL=3 emerghkva=210
New Transformer.P5476182-1_T_07570$P5476182_T_-1 phases=3 wdg=1 bus=P5476182_T_07570.1.2.3 conn=wye kv=12.00 kVA=300 wdg=2 bus=X_P5476182_T_07570.1.2.3 kv=0.416 kVA=300 %loadloss=0.6887 %noloadloss=.1627 XHL=3.7349 emerghkva=420
New Transformer.P5476190 phases=3 wdg=1 bus=P5476190_T_07570.1.2.3 conn=wye kv=12.00 kVA=300 wdg=2 bus=X_P5476190_T_07570.1.2.3 kv=0.48 kVA=300 %loadloss=0.6887 %noloadloss=.1627 XHL=3.7349 emerghkva=420
New Transformer.P5476191 phases=3 wdg=1 bus=P5476191_T_07570.1.2.3 conn=wye kv=12.00 kVA=150 wdg=2 bus=X_P5476191_T_07570.1.2.3 kv=0.48 kVA=150 %loadloss=0.6991 %noloadloss=.2298 XHL=3 emerghkva=210
New Transformer.P5504009 phases=3 wdg=1 bus=P5504009_T_07570.1.2.3 conn=wye kv=12.00 kVA=500 wdg=2 bus=X_P5504009_T_07570.1.2.3 kv=0.48 kVA=500 %loadloss=0.6887 %noloadloss=.1627 XHL=3.7349 emerghkva=700
New Transformer.P5504304 phases=3 wdg=1 bus=P5504304_T_07570.1.2.3 conn=wye kv=12.00 kVA=750 wdg=2 bus=X_P5504304_T_07570.1.2.3 kv=0.48 kVA=750 %loadloss=0.6887 %noloadloss=.1627 XHL=3.7349 emerghkva=1050
New Transformer.P5504308 phases=1 wdg=1 bus=P5504308_T_07570.1.3 conn=delta kv=12.00 kVA=25 wdg=2 bus=X_P5504308_T_07570.3 kv=0.24 kVA=25 %loadloss=1.008 %noloadloss=.230 XHL=1.803 emerghkva=35
New Transformer.P5586101 phases=1 wdg=1 bus=P5586101_T_07570.1.3 conn=delta kv=12.00 kVA=25 wdg=2 bus=X_P5586101_T_07570.3 kv=0.24 kVA=25 %loadloss=1.008 %noloadloss=.230 XHL=1.803 emerghkva=35
New Transformer.P5590213 phases=3 wdg=1 bus=P5590213_T_07570.1.2.3 conn=wye kv=12.00 kVA=1000 wdg=2 bus=X_P5590213_T_07570.1.2.3 kv=0.48 kVA=1000 %loadloss=0.6887 %noloadloss=.1627 XHL=3.7349 emerghkva=1400
New Transformer.P5601317-1_T_07570$P5601317_T_-1 phases=3 wdg=1 bus=P5601317_T_07570.1.2.3 conn=wye kv=12.00 kVA=300 wdg=2 bus=X_P5601317_T_07570.1.2.3 kv=0.416 kVA=300 %loadloss=0.6887 %noloadloss=.1627 XHL=3.7349 emerghkva=420
New Transformer.P5618240 phases=3 wdg=1 bus=P5618240_T_07570.1.2.3 conn=wye kv=12.00 kVA=300 wdg=2 bus=X_P5618240_T_07570.1.2.3 kv=0.48 kVA=300 %loadloss=0.6887 %noloadloss=.1627 XHL=3.7349 emerghkva=420
New Transformer.P5619191 phases=3 wdg=1 bus=P5619191_T_07570.1.2.3 conn=wye kv=12.00 kVA=500 wdg=2 bus=X_P5619191_T_07570.1.2.3 kv=0.48 kVA=500 %loadloss=0.6887 %noloadloss=.1627 XHL=3.7349 emerghkva=700
New Transformer.X10382E phases=1 wdg=1 bus=X10382E_T_07570.1.2 conn=delta kv=12.00 kVA=15 wdg=2 bus=X_X10382E_T_07570.1 kv=0.24 kVA=15 %loadloss=0.7639 %noloadloss=.0851 XHL=2.1 emerghkva=21
New Transformer.X15001E phases=3 wdg=1 bus=X15001E_T_07570.1.2.3 conn=wye kv=12.00 kVA=25 wdg=2 bus=X_X15001E_T_07570.1.2.3 kv=0.48 kVA=25 %loadloss=0.7639 %noloadloss=.0851 XHL=2.1 emerghkva=35
